LTspice 24.0.12 for Windows
Circuit: * C:\Users\domin\OneDrive - VietNam National University - HCM INTERNATIONAL UNIVERSITY\Documents\LTspice\LAB4\Draft1.asc
Start Time: Fri Dec 13 23:15:03 2024
solver = Normal
Maximum thread count: 20
tnom = 27
temp = 27
method = modified trap
Direct Newton iteration for .op point succeeded.
Total elapsed time: 0.141 seconds.

