LTspice 24.0.12 for Windows
Circuit: * C:\Users\domin\OneDrive - VietNam National University - HCM INTERNATIONAL UNIVERSITY\Documents\LTspice\Draft1.asc
Start Time: Mon Dec  2 10:45:25 2024
solver = Normal
Maximum thread count: 20
tnom = 27
temp = 27
method = modified trap
.OP point found by inspection.
Total elapsed time: 0.094 seconds.

