LTspice 24.0.12 for Windows
Circuit: * C:\Users\domin\OneDrive - VietNam National University - HCM INTERNATIONAL UNIVERSITY\Documents\LTspice\Draft5.asc
Start Time: Sat Dec 14 00:31:55 2024
solver = Normal
Maximum thread count: 20
tnom = 27
temp = 27
method = modified trap
WARNING: Less than two connections to node n003.  This node is used by r3.
Direct Newton iteration for .op point succeeded.
Total elapsed time: 0.113 seconds.

